# DIS package for MODFLOW-2005 generated by Flopy 3.9.5
         1        50        50        21         4         2
  0
CONSTANT    1.000000E+01                           #delr                          
CONSTANT    1.000000E+01                           #delc                          
CONSTANT    5.000000E+01                           #model_top                     
CONSTANT    0.000000E+00                           #botm layer 1                  
     10.000000             1  1.000000  SS
     90.000000             3  1.000000  TR
    270.000000             9  1.000000  TR
     90.000000             3  1.000000  TR
    270.000000             9  1.000000  TR
     90.000000             3  1.000000  TR
    270.000000             9  1.000000  TR
     90.000000             3  1.000000  TR
    270.000000             9  1.000000  TR
     90.000000             3  1.000000  TR
    270.000000             9  1.000000  TR
     90.000000             3  1.000000  TR
    270.000000             9  1.000000  TR
     90.000000             3  1.000000  TR
    270.000000             9  1.000000  TR
     90.000000             3  1.000000  TR
    270.000000             9  1.000000  TR
     90.000000             3  1.000000  TR
    270.000000             9  1.000000  TR
     90.000000             3  1.000000  TR
    270.000000             9  1.000000  TR
