# Name file for MODFLOW-2005, generated by Flopy version 3.9.5.
#xll:0.0; yll:0.0; rotation:0.0; units:meters; lenuni:2; start_datetime:1-1-1970
LIST               2  BoxModel_flopy.list
DIS               11  BoxModel_flopy.dis
BAS6              13  BoxModel_flopy.bas
BCF6              15  BoxModel_flopy.bcf
OC                14  BoxModel_flopy.oc
PCG               27  BoxModel_flopy.pcg
DATA(BINARY)      53  BoxModel_flopy.cbc REPLACE
DATA(BINARY)      51  BoxModel_flopy.hds REPLACE
