# WEL package for MODFLOW-2005 generated by Flopy 3.9.5
         1         0 
         1         0 # stress period 1
         1        25        25          -500.0
