# DIS package for MODFLOW-2005 generated by Flopy 3.9.5
         1        50        50         1         4         2
  0
CONSTANT    1.000000E+02                           #delr                          
CONSTANT    1.000000E+02                           #delc                          
INTERNAL               1  (50E15.6) -1 #model_top                     
   1.000000E+02   9.969388E+01   9.938776E+01   9.908163E+01   9.877551E+01   9.846939E+01   9.816327E+01   9.785714E+01   9.755102E+01   9.724490E+01   9.693877E+01   9.663265E+01   9.632653E+01   9.602041E+01   9.571429E+01   9.540816E+01   9.510204E+01   9.479592E+01   9.448980E+01   9.418367E+01   9.387755E+01   9.357143E+01   9.326530E+01   9.295918E+01   9.265306E+01   9.234694E+01   9.204082E+01   9.173470E+01   9.142857E+01   9.112245E+01   9.081633E+01   9.051020E+01   9.020408E+01   8.989796E+01   8.959184E+01   8.928571E+01   8.897959E+01   8.867347E+01   8.836735E+01   8.806123E+01   8.775510E+01   8.744898E+01   8.714286E+01   8.683673E+01   8.653061E+01   8.622449E+01   8.591837E+01   8.561224E+01   8.530612E+01   8.500000E+01
   1.000000E+02   9.969388E+01   9.938776E+01   9.908163E+01   9.877551E+01   9.846939E+01   9.816327E+01   9.785714E+01   9.755102E+01   9.724490E+01   9.693877E+01   9.663265E+01   9.632653E+01   9.602041E+01   9.571429E+01   9.540816E+01   9.510204E+01   9.479592E+01   9.448980E+01   9.418367E+01   9.387755E+01   9.357143E+01   9.326530E+01   9.295918E+01   9.265306E+01   9.234694E+01   9.204082E+01   9.173470E+01   9.142857E+01   9.112245E+01   9.081633E+01   9.051020E+01   9.020408E+01   8.989796E+01   8.959184E+01   8.928571E+01   8.897959E+01   8.867347E+01   8.836735E+01   8.806123E+01   8.775510E+01   8.744898E+01   8.714286E+01   8.683673E+01   8.653061E+01   8.622449E+01   8.591837E+01   8.561224E+01   8.530612E+01   8.500000E+01
   1.000000E+02   9.969388E+01   9.938776E+01   9.908163E+01   9.877551E+01   9.846939E+01   9.816327E+01   9.785714E+01   9.755102E+01   9.724490E+01   9.693877E+01   9.663265E+01   9.632653E+01   9.602041E+01   9.571429E+01   9.540816E+01   9.510204E+01   9.479592E+01   9.448980E+01   9.418367E+01   9.387755E+01   9.357143E+01   9.326530E+01   9.295918E+01   9.265306E+01   9.234694E+01   9.204082E+01   9.173470E+01   9.142857E+01   9.112245E+01   9.081633E+01   9.051020E+01   9.020408E+01   8.989796E+01   8.959184E+01   8.928571E+01   8.897959E+01   8.867347E+01   8.836735E+01   8.806123E+01   8.775510E+01   8.744898E+01   8.714286E+01   8.683673E+01   8.653061E+01   8.622449E+01   8.591837E+01   8.561224E+01   8.530612E+01   8.500000E+01
   1.000000E+02   9.969388E+01   9.938776E+01   9.908163E+01   9.877551E+01   9.846939E+01   9.816327E+01   9.785714E+01   9.755102E+01   9.724490E+01   9.693877E+01   9.663265E+01   9.632653E+01   9.602041E+01   9.571429E+01   9.540816E+01   9.510204E+01   9.479592E+01   9.448980E+01   9.418367E+01   9.387755E+01   9.357143E+01   9.326530E+01   9.295918E+01   9.265306E+01   9.234694E+01   9.204082E+01   9.173470E+01   9.142857E+01   9.112245E+01   9.081633E+01   9.051020E+01   9.020408E+01   8.989796E+01   8.959184E+01   8.928571E+01   8.897959E+01   8.867347E+01   8.836735E+01   8.806123E+01   8.775510E+01   8.744898E+01   8.714286E+01   8.683673E+01   8.653061E+01   8.622449E+01   8.591837E+01   8.561224E+01   8.530612E+01   8.500000E+01
   1.000000E+02   9.969388E+01   9.938776E+01   9.908163E+01   9.877551E+01   9.846939E+01   9.816327E+01   9.785714E+01   9.755102E+01   9.724490E+01   9.693877E+01   9.663265E+01   9.632653E+01   9.602041E+01   9.571429E+01   9.540816E+01   9.510204E+01   9.479592E+01   9.448980E+01   9.418367E+01   9.387755E+01   9.357143E+01   9.326530E+01   9.295918E+01   9.265306E+01   9.234694E+01   9.204082E+01   9.173470E+01   9.142857E+01   9.112245E+01   9.081633E+01   9.051020E+01   9.020408E+01   8.989796E+01   8.959184E+01   8.928571E+01   8.897959E+01   8.867347E+01   8.836735E+01   8.806123E+01   8.775510E+01   8.744898E+01   8.714286E+01   8.683673E+01   8.653061E+01   8.622449E+01   8.591837E+01   8.561224E+01   8.530612E+01   8.500000E+01
   1.000000E+02   9.969388E+01   9.938776E+01   9.908163E+01   9.877551E+01   9.846939E+01   9.816327E+01   9.785714E+01   9.755102E+01   9.724490E+01   9.693877E+01   9.663265E+01   9.632653E+01   9.602041E+01   9.571429E+01   9.540816E+01   9.510204E+01   9.479592E+01   9.448980E+01   9.418367E+01   9.387755E+01   9.357143E+01   9.326530E+01   9.295918E+01   9.265306E+01   9.234694E+01   9.204082E+01   9.173470E+01   9.142857E+01   9.112245E+01   9.081633E+01   9.051020E+01   9.020408E+01   8.989796E+01   8.959184E+01   8.928571E+01   8.897959E+01   8.867347E+01   8.836735E+01   8.806123E+01   8.775510E+01   8.744898E+01   8.714286E+01   8.683673E+01   8.653061E+01   8.622449E+01   8.591837E+01   8.561224E+01   8.530612E+01   8.500000E+01
   1.000000E+02   9.969388E+01   9.938776E+01   9.908163E+01   9.877551E+01   9.846939E+01   9.816327E+01   9.785714E+01   9.755102E+01   9.724490E+01   9.693877E+01   9.663265E+01   9.632653E+01   9.602041E+01   9.571429E+01   9.540816E+01   9.510204E+01   9.479592E+01   9.448980E+01   9.418367E+01   9.387755E+01   9.357143E+01   9.326530E+01   9.295918E+01   9.265306E+01   9.234694E+01   9.204082E+01   9.173470E+01   9.142857E+01   9.112245E+01   9.081633E+01   9.051020E+01   9.020408E+01   8.989796E+01   8.959184E+01   8.928571E+01   8.897959E+01   8.867347E+01   8.836735E+01   8.806123E+01   8.775510E+01   8.744898E+01   8.714286E+01   8.683673E+01   8.653061E+01   8.622449E+01   8.591837E+01   8.561224E+01   8.530612E+01   8.500000E+01
   1.000000E+02   9.969388E+01   9.938776E+01   9.908163E+01   9.877551E+01   9.846939E+01   9.816327E+01   9.785714E+01   9.755102E+01   9.724490E+01   9.693877E+01   9.663265E+01   9.632653E+01   9.602041E+01   9.571429E+01   9.540816E+01   9.510204E+01   9.479592E+01   9.448980E+01   9.418367E+01   9.387755E+01   9.357143E+01   9.326530E+01   9.295918E+01   9.265306E+01   9.234694E+01   9.204082E+01   9.173470E+01   9.142857E+01   9.112245E+01   9.081633E+01   9.051020E+01   9.020408E+01   8.989796E+01   8.959184E+01   8.928571E+01   8.897959E+01   8.867347E+01   8.836735E+01   8.806123E+01   8.775510E+01   8.744898E+01   8.714286E+01   8.683673E+01   8.653061E+01   8.622449E+01   8.591837E+01   8.561224E+01   8.530612E+01   8.500000E+01
   1.000000E+02   9.969388E+01   9.938776E+01   9.908163E+01   9.877551E+01   9.846939E+01   9.816327E+01   9.785714E+01   9.755102E+01   9.724490E+01   9.693877E+01   9.663265E+01   9.632653E+01   9.602041E+01   9.571429E+01   9.540816E+01   9.510204E+01   9.479592E+01   9.448980E+01   9.418367E+01   9.387755E+01   9.357143E+01   9.326530E+01   9.295918E+01   9.265306E+01   9.234694E+01   9.204082E+01   9.173470E+01   9.142857E+01   9.112245E+01   9.081633E+01   9.051020E+01   9.020408E+01   8.989796E+01   8.959184E+01   8.928571E+01   8.897959E+01   8.867347E+01   8.836735E+01   8.806123E+01   8.775510E+01   8.744898E+01   8.714286E+01   8.683673E+01   8.653061E+01   8.622449E+01   8.591837E+01   8.561224E+01   8.530612E+01   8.500000E+01
   1.000000E+02   9.969388E+01   9.938776E+01   9.908163E+01   9.877551E+01   9.846939E+01   9.816327E+01   9.785714E+01   9.755102E+01   9.724490E+01   9.693877E+01   9.663265E+01   9.632653E+01   9.602041E+01   9.571429E+01   9.540816E+01   9.510204E+01   9.479592E+01   9.448980E+01   9.418367E+01   9.387755E+01   9.357143E+01   9.326530E+01   9.295918E+01   9.265306E+01   9.234694E+01   9.204082E+01   9.173470E+01   9.142857E+01   9.112245E+01   9.081633E+01   9.051020E+01   9.020408E+01   8.989796E+01   8.959184E+01   8.928571E+01   8.897959E+01   8.867347E+01   8.836735E+01   8.806123E+01   8.775510E+01   8.744898E+01   8.714286E+01   8.683673E+01   8.653061E+01   8.622449E+01   8.591837E+01   8.561224E+01   8.530612E+01   8.500000E+01
   1.000000E+02   9.969388E+01   9.938776E+01   9.908163E+01   9.877551E+01   9.846939E+01   9.816327E+01   9.785714E+01   9.755102E+01   9.724490E+01   9.693877E+01   9.663265E+01   9.632653E+01   9.602041E+01   9.571429E+01   9.540816E+01   9.510204E+01   9.479592E+01   9.448980E+01   9.418367E+01   9.387755E+01   9.357143E+01   9.326530E+01   9.295918E+01   9.265306E+01   9.234694E+01   9.204082E+01   9.173470E+01   9.142857E+01   9.112245E+01   9.081633E+01   9.051020E+01   9.020408E+01   8.989796E+01   8.959184E+01   8.928571E+01   8.897959E+01   8.867347E+01   8.836735E+01   8.806123E+01   8.775510E+01   8.744898E+01   8.714286E+01   8.683673E+01   8.653061E+01   8.622449E+01   8.591837E+01   8.561224E+01   8.530612E+01   8.500000E+01
   1.000000E+02   9.969388E+01   9.938776E+01   9.908163E+01   9.877551E+01   9.846939E+01   9.816327E+01   9.785714E+01   9.755102E+01   9.724490E+01   9.693877E+01   9.663265E+01   9.632653E+01   9.602041E+01   9.571429E+01   9.540816E+01   9.510204E+01   9.479592E+01   9.448980E+01   9.418367E+01   9.387755E+01   9.357143E+01   9.326530E+01   9.295918E+01   9.265306E+01   9.234694E+01   9.204082E+01   9.173470E+01   9.142857E+01   9.112245E+01   9.081633E+01   9.051020E+01   9.020408E+01   8.989796E+01   8.959184E+01   8.928571E+01   8.897959E+01   8.867347E+01   8.836735E+01   8.806123E+01   8.775510E+01   8.744898E+01   8.714286E+01   8.683673E+01   8.653061E+01   8.622449E+01   8.591837E+01   8.561224E+01   8.530612E+01   8.500000E+01
   1.000000E+02   9.969388E+01   9.938776E+01   9.908163E+01   9.877551E+01   9.846939E+01   9.816327E+01   9.785714E+01   9.755102E+01   9.724490E+01   9.693877E+01   9.663265E+01   9.632653E+01   9.602041E+01   9.571429E+01   9.540816E+01   9.510204E+01   9.479592E+01   9.448980E+01   9.418367E+01   9.387755E+01   9.357143E+01   9.326530E+01   9.295918E+01   9.265306E+01   9.234694E+01   9.204082E+01   9.173470E+01   9.142857E+01   9.112245E+01   9.081633E+01   9.051020E+01   9.020408E+01   8.989796E+01   8.959184E+01   8.928571E+01   8.897959E+01   8.867347E+01   8.836735E+01   8.806123E+01   8.775510E+01   8.744898E+01   8.714286E+01   8.683673E+01   8.653061E+01   8.622449E+01   8.591837E+01   8.561224E+01   8.530612E+01   8.500000E+01
   1.000000E+02   9.969388E+01   9.938776E+01   9.908163E+01   9.877551E+01   9.846939E+01   9.816327E+01   9.785714E+01   9.755102E+01   9.724490E+01   9.693877E+01   9.663265E+01   9.632653E+01   9.602041E+01   9.571429E+01   9.540816E+01   9.510204E+01   9.479592E+01   9.448980E+01   9.418367E+01   9.387755E+01   9.357143E+01   9.326530E+01   9.295918E+01   9.265306E+01   9.234694E+01   9.204082E+01   9.173470E+01   9.142857E+01   9.112245E+01   9.081633E+01   9.051020E+01   9.020408E+01   8.989796E+01   8.959184E+01   8.928571E+01   8.897959E+01   8.867347E+01   8.836735E+01   8.806123E+01   8.775510E+01   8.744898E+01   8.714286E+01   8.683673E+01   8.653061E+01   8.622449E+01   8.591837E+01   8.561224E+01   8.530612E+01   8.500000E+01
   1.000000E+02   9.969388E+01   9.938776E+01   9.908163E+01   9.877551E+01   9.846939E+01   9.816327E+01   9.785714E+01   9.755102E+01   9.724490E+01   9.693877E+01   9.663265E+01   9.632653E+01   9.602041E+01   9.571429E+01   9.540816E+01   9.510204E+01   9.479592E+01   9.448980E+01   9.418367E+01   9.387755E+01   9.357143E+01   9.326530E+01   9.295918E+01   9.265306E+01   9.234694E+01   9.204082E+01   9.173470E+01   9.142857E+01   9.112245E+01   9.081633E+01   9.051020E+01   9.020408E+01   8.989796E+01   8.959184E+01   8.928571E+01   8.897959E+01   8.867347E+01   8.836735E+01   8.806123E+01   8.775510E+01   8.744898E+01   8.714286E+01   8.683673E+01   8.653061E+01   8.622449E+01   8.591837E+01   8.561224E+01   8.530612E+01   8.500000E+01
   1.000000E+02   9.969388E+01   9.938776E+01   9.908163E+01   9.877551E+01   9.846939E+01   9.816327E+01   9.785714E+01   9.755102E+01   9.724490E+01   9.693877E+01   9.663265E+01   9.632653E+01   9.602041E+01   9.571429E+01   9.540816E+01   9.510204E+01   9.479592E+01   9.448980E+01   9.418367E+01   9.387755E+01   9.357143E+01   9.326530E+01   9.295918E+01   9.265306E+01   9.234694E+01   9.204082E+01   9.173470E+01   9.142857E+01   9.112245E+01   9.081633E+01   9.051020E+01   9.020408E+01   8.989796E+01   8.959184E+01   8.928571E+01   8.897959E+01   8.867347E+01   8.836735E+01   8.806123E+01   8.775510E+01   8.744898E+01   8.714286E+01   8.683673E+01   8.653061E+01   8.622449E+01   8.591837E+01   8.561224E+01   8.530612E+01   8.500000E+01
   1.000000E+02   9.969388E+01   9.938776E+01   9.908163E+01   9.877551E+01   9.846939E+01   9.816327E+01   9.785714E+01   9.755102E+01   9.724490E+01   9.693877E+01   9.663265E+01   9.632653E+01   9.602041E+01   9.571429E+01   9.540816E+01   9.510204E+01   9.479592E+01   9.448980E+01   9.418367E+01   9.387755E+01   9.357143E+01   9.326530E+01   9.295918E+01   9.265306E+01   9.234694E+01   9.204082E+01   9.173470E+01   9.142857E+01   9.112245E+01   9.081633E+01   9.051020E+01   9.020408E+01   8.989796E+01   8.959184E+01   8.928571E+01   8.897959E+01   8.867347E+01   8.836735E+01   8.806123E+01   8.775510E+01   8.744898E+01   8.714286E+01   8.683673E+01   8.653061E+01   8.622449E+01   8.591837E+01   8.561224E+01   8.530612E+01   8.500000E+01
   1.000000E+02   9.969388E+01   9.938776E+01   9.908163E+01   9.877551E+01   9.846939E+01   9.816327E+01   9.785714E+01   9.755102E+01   9.724490E+01   9.693877E+01   9.663265E+01   9.632653E+01   9.602041E+01   9.571429E+01   9.540816E+01   9.510204E+01   9.479592E+01   9.448980E+01   9.418367E+01   9.387755E+01   9.357143E+01   9.326530E+01   9.295918E+01   9.265306E+01   9.234694E+01   9.204082E+01   9.173470E+01   9.142857E+01   9.112245E+01   9.081633E+01   9.051020E+01   9.020408E+01   8.989796E+01   8.959184E+01   8.928571E+01   8.897959E+01   8.867347E+01   8.836735E+01   8.806123E+01   8.775510E+01   8.744898E+01   8.714286E+01   8.683673E+01   8.653061E+01   8.622449E+01   8.591837E+01   8.561224E+01   8.530612E+01   8.500000E+01
   1.000000E+02   9.969388E+01   9.938776E+01   9.908163E+01   9.877551E+01   9.846939E+01   9.816327E+01   9.785714E+01   9.755102E+01   9.724490E+01   9.693877E+01   9.663265E+01   9.632653E+01   9.602041E+01   9.571429E+01   9.540816E+01   9.510204E+01   9.479592E+01   9.448980E+01   9.418367E+01   9.387755E+01   9.357143E+01   9.326530E+01   9.295918E+01   9.265306E+01   9.234694E+01   9.204082E+01   9.173470E+01   9.142857E+01   9.112245E+01   9.081633E+01   9.051020E+01   9.020408E+01   8.989796E+01   8.959184E+01   8.928571E+01   8.897959E+01   8.867347E+01   8.836735E+01   8.806123E+01   8.775510E+01   8.744898E+01   8.714286E+01   8.683673E+01   8.653061E+01   8.622449E+01   8.591837E+01   8.561224E+01   8.530612E+01   8.500000E+01
   1.000000E+02   9.969388E+01   9.938776E+01   9.908163E+01   9.877551E+01   9.846939E+01   9.816327E+01   9.785714E+01   9.755102E+01   9.724490E+01   9.693877E+01   9.663265E+01   9.632653E+01   9.602041E+01   9.571429E+01   9.540816E+01   9.510204E+01   9.479592E+01   9.448980E+01   9.418367E+01   9.387755E+01   9.357143E+01   9.326530E+01   9.295918E+01   9.265306E+01   9.234694E+01   9.204082E+01   9.173470E+01   9.142857E+01   9.112245E+01   9.081633E+01   9.051020E+01   9.020408E+01   8.989796E+01   8.959184E+01   8.928571E+01   8.897959E+01   8.867347E+01   8.836735E+01   8.806123E+01   8.775510E+01   8.744898E+01   8.714286E+01   8.683673E+01   8.653061E+01   8.622449E+01   8.591837E+01   8.561224E+01   8.530612E+01   8.500000E+01
   1.000000E+02   9.969388E+01   9.938776E+01   9.908163E+01   9.877551E+01   9.846939E+01   9.816327E+01   9.785714E+01   9.755102E+01   9.724490E+01   9.693877E+01   9.663265E+01   9.632653E+01   9.602041E+01   9.571429E+01   9.540816E+01   9.510204E+01   9.479592E+01   9.448980E+01   9.418367E+01   9.387755E+01   9.357143E+01   9.326530E+01   9.295918E+01   9.265306E+01   9.234694E+01   9.204082E+01   9.173470E+01   9.142857E+01   9.112245E+01   9.081633E+01   9.051020E+01   9.020408E+01   8.989796E+01   8.959184E+01   8.928571E+01   8.897959E+01   8.867347E+01   8.836735E+01   8.806123E+01   8.775510E+01   8.744898E+01   8.714286E+01   8.683673E+01   8.653061E+01   8.622449E+01   8.591837E+01   8.561224E+01   8.530612E+01   8.500000E+01
   1.000000E+02   9.969388E+01   9.938776E+01   9.908163E+01   9.877551E+01   9.846939E+01   9.816327E+01   9.785714E+01   9.755102E+01   9.724490E+01   9.693877E+01   9.663265E+01   9.632653E+01   9.602041E+01   9.571429E+01   9.540816E+01   9.510204E+01   9.479592E+01   9.448980E+01   9.418367E+01   9.387755E+01   9.357143E+01   9.326530E+01   9.295918E+01   9.265306E+01   9.234694E+01   9.204082E+01   9.173470E+01   9.142857E+01   9.112245E+01   9.081633E+01   9.051020E+01   9.020408E+01   8.989796E+01   8.959184E+01   8.928571E+01   8.897959E+01   8.867347E+01   8.836735E+01   8.806123E+01   8.775510E+01   8.744898E+01   8.714286E+01   8.683673E+01   8.653061E+01   8.622449E+01   8.591837E+01   8.561224E+01   8.530612E+01   8.500000E+01
   1.000000E+02   9.969388E+01   9.938776E+01   9.908163E+01   9.877551E+01   9.846939E+01   9.816327E+01   9.785714E+01   9.755102E+01   9.724490E+01   9.693877E+01   9.663265E+01   9.632653E+01   9.602041E+01   9.571429E+01   9.540816E+01   9.510204E+01   9.479592E+01   9.448980E+01   9.418367E+01   9.387755E+01   9.357143E+01   9.326530E+01   9.295918E+01   9.265306E+01   9.234694E+01   9.204082E+01   9.173470E+01   9.142857E+01   9.112245E+01   9.081633E+01   9.051020E+01   9.020408E+01   8.989796E+01   8.959184E+01   8.928571E+01   8.897959E+01   8.867347E+01   8.836735E+01   8.806123E+01   8.775510E+01   8.744898E+01   8.714286E+01   8.683673E+01   8.653061E+01   8.622449E+01   8.591837E+01   8.561224E+01   8.530612E+01   8.500000E+01
   1.000000E+02   9.969388E+01   9.938776E+01   9.908163E+01   9.877551E+01   9.846939E+01   9.816327E+01   9.785714E+01   9.755102E+01   9.724490E+01   9.693877E+01   9.663265E+01   9.632653E+01   9.602041E+01   9.571429E+01   9.540816E+01   9.510204E+01   9.479592E+01   9.448980E+01   9.418367E+01   9.387755E+01   9.357143E+01   9.326530E+01   9.295918E+01   9.265306E+01   9.234694E+01   9.204082E+01   9.173470E+01   9.142857E+01   9.112245E+01   9.081633E+01   9.051020E+01   9.020408E+01   8.989796E+01   8.959184E+01   8.928571E+01   8.897959E+01   8.867347E+01   8.836735E+01   8.806123E+01   8.775510E+01   8.744898E+01   8.714286E+01   8.683673E+01   8.653061E+01   8.622449E+01   8.591837E+01   8.561224E+01   8.530612E+01   8.500000E+01
   1.000000E+02   9.969388E+01   9.938776E+01   9.908163E+01   9.877551E+01   9.846939E+01   9.816327E+01   9.785714E+01   9.755102E+01   9.724490E+01   9.693877E+01   9.663265E+01   9.632653E+01   9.602041E+01   9.571429E+01   9.540816E+01   9.510204E+01   9.479592E+01   9.448980E+01   9.418367E+01   9.387755E+01   9.357143E+01   9.326530E+01   9.295918E+01   9.265306E+01   9.234694E+01   9.204082E+01   9.173470E+01   9.142857E+01   9.112245E+01   9.081633E+01   9.051020E+01   9.020408E+01   8.989796E+01   8.959184E+01   8.928571E+01   8.897959E+01   8.867347E+01   8.836735E+01   8.806123E+01   8.775510E+01   8.744898E+01   8.714286E+01   8.683673E+01   8.653061E+01   8.622449E+01   8.591837E+01   8.561224E+01   8.530612E+01   8.500000E+01
   1.000000E+02   9.969388E+01   9.938776E+01   9.908163E+01   9.877551E+01   9.846939E+01   9.816327E+01   9.785714E+01   9.755102E+01   9.724490E+01   9.693877E+01   9.663265E+01   9.632653E+01   9.602041E+01   9.571429E+01   9.540816E+01   9.510204E+01   9.479592E+01   9.448980E+01   9.418367E+01   9.387755E+01   9.357143E+01   9.326530E+01   9.295918E+01   9.265306E+01   9.234694E+01   9.204082E+01   9.173470E+01   9.142857E+01   9.112245E+01   9.081633E+01   9.051020E+01   9.020408E+01   8.989796E+01   8.959184E+01   8.928571E+01   8.897959E+01   8.867347E+01   8.836735E+01   8.806123E+01   8.775510E+01   8.744898E+01   8.714286E+01   8.683673E+01   8.653061E+01   8.622449E+01   8.591837E+01   8.561224E+01   8.530612E+01   8.500000E+01
   1.000000E+02   9.969388E+01   9.938776E+01   9.908163E+01   9.877551E+01   9.846939E+01   9.816327E+01   9.785714E+01   9.755102E+01   9.724490E+01   9.693877E+01   9.663265E+01   9.632653E+01   9.602041E+01   9.571429E+01   9.540816E+01   9.510204E+01   9.479592E+01   9.448980E+01   9.418367E+01   9.387755E+01   9.357143E+01   9.326530E+01   9.295918E+01   9.265306E+01   9.234694E+01   9.204082E+01   9.173470E+01   9.142857E+01   9.112245E+01   9.081633E+01   9.051020E+01   9.020408E+01   8.989796E+01   8.959184E+01   8.928571E+01   8.897959E+01   8.867347E+01   8.836735E+01   8.806123E+01   8.775510E+01   8.744898E+01   8.714286E+01   8.683673E+01   8.653061E+01   8.622449E+01   8.591837E+01   8.561224E+01   8.530612E+01   8.500000E+01
   1.000000E+02   9.969388E+01   9.938776E+01   9.908163E+01   9.877551E+01   9.846939E+01   9.816327E+01   9.785714E+01   9.755102E+01   9.724490E+01   9.693877E+01   9.663265E+01   9.632653E+01   9.602041E+01   9.571429E+01   9.540816E+01   9.510204E+01   9.479592E+01   9.448980E+01   9.418367E+01   9.387755E+01   9.357143E+01   9.326530E+01   9.295918E+01   9.265306E+01   9.234694E+01   9.204082E+01   9.173470E+01   9.142857E+01   9.112245E+01   9.081633E+01   9.051020E+01   9.020408E+01   8.989796E+01   8.959184E+01   8.928571E+01   8.897959E+01   8.867347E+01   8.836735E+01   8.806123E+01   8.775510E+01   8.744898E+01   8.714286E+01   8.683673E+01   8.653061E+01   8.622449E+01   8.591837E+01   8.561224E+01   8.530612E+01   8.500000E+01
   1.000000E+02   9.969388E+01   9.938776E+01   9.908163E+01   9.877551E+01   9.846939E+01   9.816327E+01   9.785714E+01   9.755102E+01   9.724490E+01   9.693877E+01   9.663265E+01   9.632653E+01   9.602041E+01   9.571429E+01   9.540816E+01   9.510204E+01   9.479592E+01   9.448980E+01   9.418367E+01   9.387755E+01   9.357143E+01   9.326530E+01   9.295918E+01   9.265306E+01   9.234694E+01   9.204082E+01   9.173470E+01   9.142857E+01   9.112245E+01   9.081633E+01   9.051020E+01   9.020408E+01   8.989796E+01   8.959184E+01   8.928571E+01   8.897959E+01   8.867347E+01   8.836735E+01   8.806123E+01   8.775510E+01   8.744898E+01   8.714286E+01   8.683673E+01   8.653061E+01   8.622449E+01   8.591837E+01   8.561224E+01   8.530612E+01   8.500000E+01
   1.000000E+02   9.969388E+01   9.938776E+01   9.908163E+01   9.877551E+01   9.846939E+01   9.816327E+01   9.785714E+01   9.755102E+01   9.724490E+01   9.693877E+01   9.663265E+01   9.632653E+01   9.602041E+01   9.571429E+01   9.540816E+01   9.510204E+01   9.479592E+01   9.448980E+01   9.418367E+01   9.387755E+01   9.357143E+01   9.326530E+01   9.295918E+01   9.265306E+01   9.234694E+01   9.204082E+01   9.173470E+01   9.142857E+01   9.112245E+01   9.081633E+01   9.051020E+01   9.020408E+01   8.989796E+01   8.959184E+01   8.928571E+01   8.897959E+01   8.867347E+01   8.836735E+01   8.806123E+01   8.775510E+01   8.744898E+01   8.714286E+01   8.683673E+01   8.653061E+01   8.622449E+01   8.591837E+01   8.561224E+01   8.530612E+01   8.500000E+01
   1.000000E+02   9.969388E+01   9.938776E+01   9.908163E+01   9.877551E+01   9.846939E+01   9.816327E+01   9.785714E+01   9.755102E+01   9.724490E+01   9.693877E+01   9.663265E+01   9.632653E+01   9.602041E+01   9.571429E+01   9.540816E+01   9.510204E+01   9.479592E+01   9.448980E+01   9.418367E+01   9.387755E+01   9.357143E+01   9.326530E+01   9.295918E+01   9.265306E+01   9.234694E+01   9.204082E+01   9.173470E+01   9.142857E+01   9.112245E+01   9.081633E+01   9.051020E+01   9.020408E+01   8.989796E+01   8.959184E+01   8.928571E+01   8.897959E+01   8.867347E+01   8.836735E+01   8.806123E+01   8.775510E+01   8.744898E+01   8.714286E+01   8.683673E+01   8.653061E+01   8.622449E+01   8.591837E+01   8.561224E+01   8.530612E+01   8.500000E+01
   1.000000E+02   9.969388E+01   9.938776E+01   9.908163E+01   9.877551E+01   9.846939E+01   9.816327E+01   9.785714E+01   9.755102E+01   9.724490E+01   9.693877E+01   9.663265E+01   9.632653E+01   9.602041E+01   9.571429E+01   9.540816E+01   9.510204E+01   9.479592E+01   9.448980E+01   9.418367E+01   9.387755E+01   9.357143E+01   9.326530E+01   9.295918E+01   9.265306E+01   9.234694E+01   9.204082E+01   9.173470E+01   9.142857E+01   9.112245E+01   9.081633E+01   9.051020E+01   9.020408E+01   8.989796E+01   8.959184E+01   8.928571E+01   8.897959E+01   8.867347E+01   8.836735E+01   8.806123E+01   8.775510E+01   8.744898E+01   8.714286E+01   8.683673E+01   8.653061E+01   8.622449E+01   8.591837E+01   8.561224E+01   8.530612E+01   8.500000E+01
   1.000000E+02   9.969388E+01   9.938776E+01   9.908163E+01   9.877551E+01   9.846939E+01   9.816327E+01   9.785714E+01   9.755102E+01   9.724490E+01   9.693877E+01   9.663265E+01   9.632653E+01   9.602041E+01   9.571429E+01   9.540816E+01   9.510204E+01   9.479592E+01   9.448980E+01   9.418367E+01   9.387755E+01   9.357143E+01   9.326530E+01   9.295918E+01   9.265306E+01   9.234694E+01   9.204082E+01   9.173470E+01   9.142857E+01   9.112245E+01   9.081633E+01   9.051020E+01   9.020408E+01   8.989796E+01   8.959184E+01   8.928571E+01   8.897959E+01   8.867347E+01   8.836735E+01   8.806123E+01   8.775510E+01   8.744898E+01   8.714286E+01   8.683673E+01   8.653061E+01   8.622449E+01   8.591837E+01   8.561224E+01   8.530612E+01   8.500000E+01
   1.000000E+02   9.969388E+01   9.938776E+01   9.908163E+01   9.877551E+01   9.846939E+01   9.816327E+01   9.785714E+01   9.755102E+01   9.724490E+01   9.693877E+01   9.663265E+01   9.632653E+01   9.602041E+01   9.571429E+01   9.540816E+01   9.510204E+01   9.479592E+01   9.448980E+01   9.418367E+01   9.387755E+01   9.357143E+01   9.326530E+01   9.295918E+01   9.265306E+01   9.234694E+01   9.204082E+01   9.173470E+01   9.142857E+01   9.112245E+01   9.081633E+01   9.051020E+01   9.020408E+01   8.989796E+01   8.959184E+01   8.928571E+01   8.897959E+01   8.867347E+01   8.836735E+01   8.806123E+01   8.775510E+01   8.744898E+01   8.714286E+01   8.683673E+01   8.653061E+01   8.622449E+01   8.591837E+01   8.561224E+01   8.530612E+01   8.500000E+01
   1.000000E+02   9.969388E+01   9.938776E+01   9.908163E+01   9.877551E+01   9.846939E+01   9.816327E+01   9.785714E+01   9.755102E+01   9.724490E+01   9.693877E+01   9.663265E+01   9.632653E+01   9.602041E+01   9.571429E+01   9.540816E+01   9.510204E+01   9.479592E+01   9.448980E+01   9.418367E+01   9.387755E+01   9.357143E+01   9.326530E+01   9.295918E+01   9.265306E+01   9.234694E+01   9.204082E+01   9.173470E+01   9.142857E+01   9.112245E+01   9.081633E+01   9.051020E+01   9.020408E+01   8.989796E+01   8.959184E+01   8.928571E+01   8.897959E+01   8.867347E+01   8.836735E+01   8.806123E+01   8.775510E+01   8.744898E+01   8.714286E+01   8.683673E+01   8.653061E+01   8.622449E+01   8.591837E+01   8.561224E+01   8.530612E+01   8.500000E+01
   1.000000E+02   9.969388E+01   9.938776E+01   9.908163E+01   9.877551E+01   9.846939E+01   9.816327E+01   9.785714E+01   9.755102E+01   9.724490E+01   9.693877E+01   9.663265E+01   9.632653E+01   9.602041E+01   9.571429E+01   9.540816E+01   9.510204E+01   9.479592E+01   9.448980E+01   9.418367E+01   9.387755E+01   9.357143E+01   9.326530E+01   9.295918E+01   9.265306E+01   9.234694E+01   9.204082E+01   9.173470E+01   9.142857E+01   9.112245E+01   9.081633E+01   9.051020E+01   9.020408E+01   8.989796E+01   8.959184E+01   8.928571E+01   8.897959E+01   8.867347E+01   8.836735E+01   8.806123E+01   8.775510E+01   8.744898E+01   8.714286E+01   8.683673E+01   8.653061E+01   8.622449E+01   8.591837E+01   8.561224E+01   8.530612E+01   8.500000E+01
   1.000000E+02   9.969388E+01   9.938776E+01   9.908163E+01   9.877551E+01   9.846939E+01   9.816327E+01   9.785714E+01   9.755102E+01   9.724490E+01   9.693877E+01   9.663265E+01   9.632653E+01   9.602041E+01   9.571429E+01   9.540816E+01   9.510204E+01   9.479592E+01   9.448980E+01   9.418367E+01   9.387755E+01   9.357143E+01   9.326530E+01   9.295918E+01   9.265306E+01   9.234694E+01   9.204082E+01   9.173470E+01   9.142857E+01   9.112245E+01   9.081633E+01   9.051020E+01   9.020408E+01   8.989796E+01   8.959184E+01   8.928571E+01   8.897959E+01   8.867347E+01   8.836735E+01   8.806123E+01   8.775510E+01   8.744898E+01   8.714286E+01   8.683673E+01   8.653061E+01   8.622449E+01   8.591837E+01   8.561224E+01   8.530612E+01   8.500000E+01
   1.000000E+02   9.969388E+01   9.938776E+01   9.908163E+01   9.877551E+01   9.846939E+01   9.816327E+01   9.785714E+01   9.755102E+01   9.724490E+01   9.693877E+01   9.663265E+01   9.632653E+01   9.602041E+01   9.571429E+01   9.540816E+01   9.510204E+01   9.479592E+01   9.448980E+01   9.418367E+01   9.387755E+01   9.357143E+01   9.326530E+01   9.295918E+01   9.265306E+01   9.234694E+01   9.204082E+01   9.173470E+01   9.142857E+01   9.112245E+01   9.081633E+01   9.051020E+01   9.020408E+01   8.989796E+01   8.959184E+01   8.928571E+01   8.897959E+01   8.867347E+01   8.836735E+01   8.806123E+01   8.775510E+01   8.744898E+01   8.714286E+01   8.683673E+01   8.653061E+01   8.622449E+01   8.591837E+01   8.561224E+01   8.530612E+01   8.500000E+01
   1.000000E+02   9.969388E+01   9.938776E+01   9.908163E+01   9.877551E+01   9.846939E+01   9.816327E+01   9.785714E+01   9.755102E+01   9.724490E+01   9.693877E+01   9.663265E+01   9.632653E+01   9.602041E+01   9.571429E+01   9.540816E+01   9.510204E+01   9.479592E+01   9.448980E+01   9.418367E+01   9.387755E+01   9.357143E+01   9.326530E+01   9.295918E+01   9.265306E+01   9.234694E+01   9.204082E+01   9.173470E+01   9.142857E+01   9.112245E+01   9.081633E+01   9.051020E+01   9.020408E+01   8.989796E+01   8.959184E+01   8.928571E+01   8.897959E+01   8.867347E+01   8.836735E+01   8.806123E+01   8.775510E+01   8.744898E+01   8.714286E+01   8.683673E+01   8.653061E+01   8.622449E+01   8.591837E+01   8.561224E+01   8.530612E+01   8.500000E+01