# RCH package for MODFLOW-2005 generated by Flopy 3.9.5
         3        53
         1        -1 # Stress period 1
INTERNAL               1  (50E15.6) -1 #rech_1                        
   5.000000E-05   5.000000E-05   5.000000E-05   5.000000E-05   5.000000E-05   5.000000E-05   5.000000E-05   5.000000E-05   5.000000E-05   5.000000E-05   5.000000E-05   5.000000E-05   5.000000E-05   5.000000E-05   5.000000E-05   5.000000E-05   5.000000E-05   5.000000E-05   5.000000E-05   5.000000E-05   5.000000E-05   5.000000E-05   5.000000E-05   5.000000E-05   5.000000E-05   5.000000E-05   5.000000E-05   5.000000E-05   5.000000E-05   5.000000E-05   5.000000E-05   5.000000E-05   5.000000E-05   5.000000E-05   5.000000E-05   5.000000E-05   5.000000E-05   5.000000E-05   5.000000E-05   5.000000E-05   5.000000E-05   5.000000E-05   5.000000E-05   5.000000E-05   5.000000E-05   5.000000E-05   5.000000E-05   5.000000E-05   5.000000E-05   5.000000E-05
   5.000000E-05   5.000000E-05   5.000000E-05   5.000000E-05   5.000000E-05   5.000000E-05   5.000000E-05   5.000000E-05   5.000000E-05   5.000000E-05   5.000000E-05   5.000000E-05   5.000000E-05   5.000000E-05   5.000000E-05   5.000000E-05   5.000000E-05   5.000000E-05   5.000000E-05   5.000000E-05   5.000000E-05   5.000000E-05   5.000000E-05   5.000000E-05   5.000000E-05   5.000000E-05   5.000000E-05   5.000000E-05   5.000000E-05   5.000000E-05   5.000000E-05   5.000000E-05   5.000000E-05   5.000000E-05   5.000000E-05   5.000000E-05   5.000000E-05   5.000000E-05   5.000000E-05   5.000000E-05   5.000000E-05   5.000000E-05   5.000000E-05   5.000000E-05   5.000000E-05   5.000000E-05   5.000000E-05   5.000000E-05   5.000000E-05   5.000000E-05
   5.000000E-05   5.000000E-05   5.000000E-05   5.000000E-05   5.000000E-05   5.000000E-05   5.000000E-05   5.000000E-05   5.000000E-05   5.000000E-05   5.000000E-05   5.000000E-05   5.000000E-05   5.000000E-05   5.000000E-05   5.000000E-05   5.000000E-05   5.000000E-05   5.000000E-05   5.000000E-05   5.000000E-05   5.000000E-05   5.000000E-05   5.000000E-05   5.000000E-05   5.000000E-05   5.000000E-05   5.000000E-05   5.000000E-05   5.000000E-05   5.000000E-05   5.000000E-05   5.000000E-05   5.000000E-05   5.000000E-05   5.000000E-05   5.000000E-05   5.000000E-05   5.000000E-05   5.000000E-05   5.000000E-05   5.000000E-05   5.000000E-05   5.000000E-05   5.000000E-05   5.000000E-05   5.000000E-05   5.000000E-05   5.000000E-05   5.000000E-05
   5.000000E-05   5.000000E-05   5.000000E-05   5.000000E-05   5.000000E-05   5.000000E-05   5.000000E-05   5.000000E-05   5.000000E-05   5.000000E-05   5.000000E-05   5.000000E-05   5.000000E-05   5.000000E-05   5.000000E-05   5.000000E-05   5.000000E-05   5.000000E-05   5.000000E-05   5.000000E-05   5.000000E-05   5.000000E-05   5.000000E-05   5.000000E-05   5.000000E-05   5.000000E-05   5.000000E-05   5.000000E-05   5.000000E-05   5.000000E-05   5.000000E-05   5.000000E-05   5.000000E-05   5.000000E-05   5.000000E-05   5.000000E-05   5.000000E-05   5.000000E-05   5.000000E-05   5.000000E-05   5.000000E-05   5.000000E-05   5.000000E-05   5.000000E-05   5.000000E-05   5.000000E-05   5.000000E-05   5.000000E-05   5.000000E-05   5.000000E-05
   5.000000E-05   5.000000E-05   5.000000E-05   5.000000E-05   5.000000E-05   5.000000E-05   5.000000E-05   5.000000E-05   5.000000E-05   5.000000E-05   5.000000E-05   5.000000E-05   5.000000E-05   5.000000E-05   5.000000E-05   5.000000E-05   5.000000E-05   5.000000E-05   5.000000E-05   5.000000E-05   5.000000E-05   5.000000E-05   5.000000E-05   5.000000E-05   5.000000E-05   5.000000E-05   5.000000E-05   5.000000E-05   5.000000E-05   5.000000E-05   5.000000E-05   5.000000E-05   5.000000E-05   5.000000E-05   5.000000E-05   5.000000E-05   5.000000E-05   5.000000E-05   5.000000E-05   5.000000E-05   5.000000E-05   5.000000E-05   5.000000E-05   5.000000E-05   5.000000E-05   5.000000E-05   5.000000E-05   5.000000E-05   5.000000E-05   5.000000E-05
   5.000000E-05   5.000000E-05   5.000000E-05   5.000000E-05   5.000000E-05   5.000000E-05   5.000000E-05   5.000000E-05   5.000000E-05   5.000000E-05   5.000000E-05   5.000000E-05   5.000000E-05   5.000000E-05   5.000000E-05   5.000000E-05   5.000000E-05   5.000000E-05   5.000000E-05   5.000000E-05   5.000000E-05   5.000000E-05   5.000000E-05   5.000000E-05   5.000000E-05   5.000000E-05   5.000000E-05   5.000000E-05   5.000000E-05   5.000000E-05   5.000000E-05   5.000000E-05   5.000000E-05   5.000000E-05   5.000000E-05   5.000000E-05   5.000000E-05   5.000000E-05   5.000000E-05   5.000000E-05   5.000000E-05   5.000000E-05   5.000000E-05   5.000000E-05   5.000000E-05   5.000000E-05   5.000000E-05   5.000000E-05   5.000000E-05   5.000000E-05
   5.000000E-05   5.000000E-05   5.000000E-05   5.000000E-05   5.000000E-05   5.000000E-05   5.000000E-05   5.000000E-05   5.000000E-05   5.000000E-05   5.000000E-05   5.000000E-05   5.000000E-05   5.000000E-05   5.000000E-05   5.000000E-05   5.000000E-05   5.000000E-05   5.000000E-05   5.000000E-05   5.000000E-05   5.000000E-05   5.000000E-05   5.000000E-05   5.000000E-05   5.000000E-05   5.000000E-05   5.000000E-05   5.000000E-05   5.000000E-05   5.000000E-05   5.000000E-05   5.000000E-05   5.000000E-05   5.000000E-05   5.000000E-05   5.000000E-05   5.000000E-05   5.000000E-05   5.000000E-05   5.000000E-05   5.000000E-05   5.000000E-05   5.000000E-05   5.000000E-05   5.000000E-05   5.000000E-05   5.000000E-05   5.000000E-05   5.000000E-05
   5.000000E-05   5.000000E-05   5.000000E-05   5.000000E-05   5.000000E-05   5.000000E-05   5.000000E-05   5.000000E-05   5.000000E-05   5.000000E-05   5.000000E-05   5.000000E-05   5.000000E-05   5.000000E-05   5.000000E-05   5.000000E-05   5.000000E-05   5.000000E-05   5.000000E-05   5.000000E-05   5.000000E-05   5.000000E-05   5.000000E-05   5.000000E-05   5.000000E-05   5.000000E-05   5.000000E-05   5.000000E-05   5.000000E-05   5.000000E-05   5.000000E-05   5.000000E-05   5.000000E-05   5.000000E-05   5.000000E-05   5.000000E-05   5.000000E-05   5.000000E-05   5.000000E-05   5.000000E-05   5.000000E-05   5.000000E-05   5.000000E-05   5.000000E-05   5.000000E-05   5.000000E-05   5.000000E-05   5.000000E-05   5.000000E-05   5.000000E-05
   5.000000E-05   5.000000E-05   5.000000E-05   5.000000E-05   5.000000E-05   5.000000E-05   5.000000E-05   5.000000E-05   5.000000E-05   5.000000E-05   5.000000E-05   5.000000E-05   5.000000E-05   5.000000E-05   5.000000E-05   5.000000E-05   5.000000E-05   5.000000E-05   5.000000E-05   5.000000E-05   5.000000E-05   5.000000E-05   5.000000E-05   5.000000E-05   5.000000E-05   5.000000E-05   5.000000E-05   5.000000E-05   5.000000E-05   5.000000E-05   5.000000E-05   5.000000E-05   5.000000E-05   5.000000E-05   5.000000E-05   5.000000E-05   5.000000E-05   5.000000E-05   5.000000E-05   5.000000E-05   5.000000E-05   5.000000E-05   5.000000E-05   5.000000E-05   5.000000E-05   5.000000E-05   5.000000E-05   5.000000E-05   5.000000E-05   5.000000E-05
   5.000000E-05   5.000000E-05   5.000000E-05   5.000000E-05   5.000000E-05   5.000000E-05   5.000000E-05   5.000000E-05   5.000000E-05   5.000000E-05   5.000000E-05   5.000000E-05   5.000000E-05   5.000000E-05   5.000000E-05   5.000000E-05   5.000000E-05   5.000000E-05   5.000000E-05   5.000000E-05   5.000000E-05   5.000000E-05   5.000000E-05   5.000000E-05   5.000000E-05   5.000000E-05   5.000000E-05   5.000000E-05   5.000000E-05   5.000000E-05   5.000000E-05   5.000000E-05   5.000000E-05   5.000000E-05   5.000000E-05   5.000000E-05   5.000000E-05   5.000000E-05   5.000000E-05   5.000000E-05   5.000000E-05   5.000000E-05   5.000000E-05   5.000000E-05   5.000000E-05   5.000000E-05   5.000000E-05   5.000000E-05   5.000000E-05   5.000000E-05
   5.000000E-05   5.000000E-05   5.000000E-05   5.000000E-05   5.000000E-05   5.000000E-05   5.000000E-05   5.000000E-05   5.000000E-05   5.000000E-05   5.000000E-05   5.000000E-05   5.000000E-05   5.000000E-05   5.000000E-05   5.000000E-05   5.000000E-05   5.000000E-05   5.000000E-05   5.000000E-05   5.000000E-05   5.000000E-05   5.000000E-05   5.000000E-05   5.000000E-05   5.000000E-05   5.000000E-05   5.000000E-05   5.000000E-05   5.000000E-05   5.000000E-05   5.000000E-05   5.000000E-05   5.000000E-05   5.000000E-05   5.000000E-05   5.000000E-05   5.000000E-05   5.000000E-05   5.000000E-05   5.000000E-05   5.000000E-05   5.000000E-05   5.000000E-05   5.000000E-05   5.000000E-05   5.000000E-05   5.000000E-05   5.000000E-05   5.000000E-05
   5.000000E-05   5.000000E-05   5.000000E-05   5.000000E-05   5.000000E-05   5.000000E-05   5.000000E-05   5.000000E-05   5.000000E-05   5.000000E-05   5.000000E-05   5.000000E-05   5.000000E-05   5.000000E-05   5.000000E-05   5.000000E-05   5.000000E-05   5.000000E-05   5.000000E-05   5.000000E-05   5.000000E-05   5.000000E-05   5.000000E-05   5.000000E-05   5.000000E-05   5.000000E-05   5.000000E-05   5.000000E-05   5.000000E-05   5.000000E-05   5.000000E-05   5.000000E-05   5.000000E-05   5.000000E-05   5.000000E-05   5.000000E-05   5.000000E-05   5.000000E-05   5.000000E-05   5.000000E-05   5.000000E-05   5.000000E-05   5.000000E-05   5.000000E-05   5.000000E-05   5.000000E-05   5.000000E-05   5.000000E-05   5.000000E-05   5.000000E-05
   5.000000E-05   5.000000E-05   5.000000E-05   5.000000E-05   5.000000E-05   5.000000E-05   5.000000E-05   5.000000E-05   5.000000E-05   5.000000E-05   5.000000E-05   5.000000E-05   5.000000E-05   5.000000E-05   5.000000E-05   5.000000E-05   5.000000E-05   5.000000E-05   5.000000E-05   5.000000E-05   5.000000E-05   5.000000E-05   5.000000E-05   5.000000E-05   5.000000E-05   5.000000E-05   5.000000E-05   5.000000E-05   5.000000E-05   5.000000E-05   5.000000E-05   5.000000E-05   5.000000E-05   5.000000E-05   5.000000E-05   5.000000E-05   5.000000E-05   5.000000E-05   5.000000E-05   5.000000E-05   5.000000E-05   5.000000E-05   5.000000E-05   5.000000E-05   5.000000E-05   5.000000E-05   5.000000E-05   5.000000E-05   5.000000E-05   5.000000E-05
   5.000000E-05   5.000000E-05   5.000000E-05   5.000000E-05   5.000000E-05   5.000000E-05   5.000000E-05   5.000000E-05   5.000000E-05   5.000000E-05   5.000000E-05   5.000000E-05   5.000000E-05   5.000000E-05   5.000000E-05   5.000000E-05   5.000000E-05   5.000000E-05   5.000000E-05   5.000000E-05   5.000000E-05   5.000000E-05   5.000000E-05   5.000000E-05   5.000000E-05   5.000000E-05   5.000000E-05   5.000000E-05   5.000000E-05   5.000000E-05   5.000000E-05   5.000000E-05   5.000000E-05   5.000000E-05   5.000000E-05   5.000000E-05   5.000000E-05   5.000000E-05   5.000000E-05   5.000000E-05   5.000000E-05   5.000000E-05   5.000000E-05   5.000000E-05   5.000000E-05   5.000000E-05   5.000000E-05   5.000000E-05   5.000000E-05   5.000000E-05
   5.000000E-05   5.000000E-05   5.000000E-05   5.000000E-05   5.000000E-05   5.000000E-05   5.000000E-05   5.000000E-05   5.000000E-05   5.000000E-05   5.000000E-05   5.000000E-05   5.000000E-05   5.000000E-05   5.000000E-05   5.000000E-05   5.000000E-05   5.000000E-05   5.000000E-05   5.000000E-05   5.000000E-05   5.000000E-05   5.000000E-05   5.000000E-05   5.000000E-05   5.000000E-05   5.000000E-05   5.000000E-05   5.000000E-05   5.000000E-05   5.000000E-05   5.000000E-05   5.000000E-05   5.000000E-05   5.000000E-05   5.000000E-05   5.000000E-05   5.000000E-05   5.000000E-05   5.000000E-05   5.000000E-05   5.000000E-05   5.000000E-05   5.000000E-05   5.000000E-05   5.000000E-05   5.000000E-05   5.000000E-05   5.000000E-05   5.000000E-05
   5.000000E-05   5.000000E-05   5.000000E-05   5.000000E-05   5.000000E-05   5.000000E-05   5.000000E-05   5.000000E-05   5.000000E-05   5.000000E-05   5.000000E-05   5.000000E-05   5.000000E-05   5.000000E-05   5.000000E-05   5.000000E-05   5.000000E-05   5.000000E-05   5.000000E-05   5.000000E-05   5.000000E-05   5.000000E-05   5.000000E-05   5.000000E-05   5.000000E-05   5.000000E-05   5.000000E-05   5.000000E-05   5.000000E-05   5.000000E-05   5.000000E-05   5.000000E-05   5.000000E-05   5.000000E-05   5.000000E-05   5.000000E-05   5.000000E-05   5.000000E-05   5.000000E-05   5.000000E-05   5.000000E-05   5.000000E-05   5.000000E-05   5.000000E-05   5.000000E-05   5.000000E-05   5.000000E-05   5.000000E-05   5.000000E-05   5.000000E-05
   5.000000E-05   5.000000E-05   5.000000E-05   5.000000E-05   5.000000E-05   5.000000E-05   5.000000E-05   5.000000E-05   5.000000E-05   5.000000E-05   5.000000E-05   5.000000E-05   5.000000E-05   5.000000E-05   5.000000E-05   5.000000E-05   5.000000E-05   5.000000E-05   5.000000E-05   5.000000E-05   5.000000E-05   5.000000E-05   5.000000E-05   5.000000E-05   5.000000E-05   5.000000E-05   5.000000E-05   5.000000E-05   5.000000E-05   5.000000E-05   5.000000E-05   5.000000E-05   5.000000E-05   5.000000E-05   5.000000E-05   5.000000E-05   5.000000E-05   5.000000E-05   5.000000E-05   5.000000E-05   5.000000E-05   5.000000E-05   5.000000E-05   5.000000E-05   5.000000E-05   5.000000E-05   5.000000E-05   5.000000E-05   5.000000E-05   5.000000E-05
   5.000000E-05   5.000000E-05   5.000000E-05   5.000000E-05   5.000000E-05   5.000000E-05   5.000000E-05   5.000000E-05   5.000000E-05   5.000000E-05   5.000000E-05   5.000000E-05   5.000000E-05   5.000000E-05   5.000000E-05   5.000000E-05   5.000000E-05   5.000000E-05   5.000000E-05   5.000000E-05   5.000000E-05   5.000000E-05   5.000000E-05   5.000000E-05   5.000000E-05   5.000000E-05   5.000000E-05   5.000000E-05   5.000000E-05   5.000000E-05   5.000000E-05   5.000000E-05   5.000000E-05   5.000000E-05   5.000000E-05   5.000000E-05   5.000000E-05   5.000000E-05   5.000000E-05   5.000000E-05   5.000000E-05   5.000000E-05   5.000000E-05   5.000000E-05   5.000000E-05   5.000000E-05   5.000000E-05   5.000000E-05   5.000000E-05   5.000000E-05
   5.000000E-05   5.000000E-05   5.000000E-05   5.000000E-05   5.000000E-05   5.000000E-05   5.000000E-05   5.000000E-05   5.000000E-05   5.000000E-05   5.000000E-05   5.000000E-05   5.000000E-05   5.000000E-05   5.000000E-05   5.000000E-05   5.000000E-05   5.000000E-05   5.000000E-05   5.000000E-05   5.000000E-05   5.000000E-05   5.000000E-05   5.000000E-05   5.000000E-05   5.000000E-05   5.000000E-05   5.000000E-05   5.000000E-05   5.000000E-05   5.000000E-05   5.000000E-05   5.000000E-05   5.000000E-05   5.000000E-05   5.000000E-05   5.000000E-05   5.000000E-05   5.000000E-05   5.000000E-05   5.000000E-05   5.000000E-05   5.000000E-05   5.000000E-05   5.000000E-05   5.000000E-05   5.000000E-05   5.000000E-05   5.000000E-05   5.000000E-05
   5.000000E-05   5.000000E-05   5.000000E-05   5.000000E-05   5.000000E-05   5.000000E-05   5.000000E-05   5.000000E-05   5.000000E-05   5.000000E-05   5.000000E-05   5.000000E-05   5.000000E-05   5.000000E-05   5.000000E-05   5.000000E-05   5.000000E-05   5.000000E-05   5.000000E-05   5.000000E-05   5.000000E-05   5.000000E-05   5.000000E-05   5.000000E-05   5.000000E-05   5.000000E-05   5.000000E-05   5.000000E-05   5.000000E-05   5.000000E-05   5.000000E-05   5.000000E-05   5.000000E-05   5.000000E-05   5.000000E-05   5.000000E-05   5.000000E-05   5.000000E-05   5.000000E-05   5.000000E-05   5.000000E-05   5.000000E-05   5.000000E-05   5.000000E-05   5.000000E-05   5.000000E-05   5.000000E-05   5.000000E-05   5.000000E-05   5.000000E-05
   5.000000E-05   5.000000E-05   5.000000E-05   5.000000E-05   5.000000E-05   5.000000E-05   5.000000E-05   5.000000E-05   5.000000E-05   5.000000E-05   5.000000E-05   5.000000E-05   5.000000E-05   5.000000E-05   5.000000E-05   5.000000E-05   5.000000E-05   5.000000E-05   5.000000E-05   5.000000E-05   5.000000E-05   5.000000E-05   5.000000E-05   5.000000E-05   5.000000E-05   5.000000E-05   5.000000E-05   5.000000E-05   5.000000E-05   5.000000E-05   5.000000E-05   5.000000E-05   5.000000E-05   5.000000E-05   5.000000E-05   5.000000E-05   5.000000E-05   5.000000E-05   5.000000E-05   5.000000E-05   5.000000E-05   5.000000E-05   5.000000E-05   5.000000E-05   5.000000E-05   5.000000E-05   5.000000E-05   5.000000E-05   5.000000E-05   5.000000E-05
   5.000000E-05   5.000000E-05   5.000000E-05   5.000000E-05   5.000000E-05   5.000000E-05   5.000000E-05   5.000000E-05   5.000000E-05   5.000000E-05   5.000000E-05   5.000000E-05   5.000000E-05   5.000000E-05   5.000000E-05   5.000000E-05   5.000000E-05   5.000000E-05   5.000000E-05   5.000000E-05   5.000000E-05   5.000000E-05   5.000000E-05   5.000000E-05   5.000000E-05   5.000000E-05   5.000000E-05   5.000000E-05   5.000000E-05   5.000000E-05   5.000000E-05   5.000000E-05   5.000000E-05   5.000000E-05   5.000000E-05   5.000000E-05   5.000000E-05   5.000000E-05   5.000000E-05   5.000000E-05   5.000000E-05   5.000000E-05   5.000000E-05   5.000000E-05   5.000000E-05   5.000000E-05   5.000000E-05   5.000000E-05   5.000000E-05   5.000000E-05
   5.000000E-05   5.000000E-05   5.000000E-05   5.000000E-05   5.000000E-05   5.000000E-05   5.000000E-05   5.000000E-05   5.000000E-05   5.000000E-05   5.000000E-05   5.000000E-05   5.000000E-05   5.000000E-05   5.000000E-05   5.000000E-05   5.000000E-05   5.000000E-05   5.000000E-05   5.000000E-05   5.000000E-05   5.000000E-05   5.000000E-05   5.000000E-05   5.000000E-05   5.000000E-05   5.000000E-05   5.000000E-05   5.000000E-05   5.000000E-05   5.000000E-05   5.000000E-05   5.000000E-05   5.000000E-05   5.000000E-05   5.000000E-05   5.000000E-05   5.000000E-05   5.000000E-05   5.000000E-05   5.000000E-05   5.000000E-05   5.000000E-05   5.000000E-05   5.000000E-05   5.000000E-05   5.000000E-05   5.000000E-05   5.000000E-05   5.000000E-05
   5.000000E-05   5.000000E-05   5.000000E-05   5.000000E-05   5.000000E-05   5.000000E-05   5.000000E-05   5.000000E-05   5.000000E-05   5.000000E-05   5.000000E-05   5.000000E-05   5.000000E-05   5.000000E-05   5.000000E-05   5.000000E-05   5.000000E-05   5.000000E-05   5.000000E-05   5.000000E-05   5.000000E-05   5.000000E-05   5.000000E-05   5.000000E-05   5.000000E-05   5.000000E-05   5.000000E-05   5.000000E-05   5.000000E-05   5.000000E-05   5.000000E-05   5.000000E-05   5.000000E-05   5.000000E-05   5.000000E-05   5.000000E-05   5.000000E-05   5.000000E-05   5.000000E-05   5.000000E-05   5.000000E-05   5.000000E-05   5.000000E-05   5.000000E-05   5.000000E-05   5.000000E-05   5.000000E-05   5.000000E-05   5.000000E-05   5.000000E-05
   5.000000E-05   5.000000E-05   5.000000E-05   5.000000E-05   5.000000E-05   5.000000E-05   5.000000E-05   5.000000E-05   5.000000E-05   5.000000E-05   5.000000E-05   5.000000E-05   5.000000E-05   5.000000E-05   5.000000E-05   5.000000E-05   5.000000E-05   5.000000E-05   5.000000E-05   5.000000E-05   5.000000E-05   5.000000E-05   5.000000E-05   5.000000E-05   5.000000E-05   5.000000E-05   5.000000E-05   5.000000E-05   5.000000E-05   5.000000E-05   5.000000E-05   5.000000E-05   5.000000E-05   5.000000E-05   5.000000E-05   5.000000E-05   5.000000E-05   5.000000E-05   5.000000E-05   5.000000E-05   5.000000E-05   5.000000E-05   5.000000E-05   5.000000E-05   5.000000E-05   5.000000E-05   5.000000E-05   5.000000E-05   5.000000E-05   5.000000E-05
   5.000000E-05   5.000000E-05   5.000000E-05   5.000000E-05   5.000000E-05   5.000000E-05   5.000000E-05   5.000000E-05   5.000000E-05   5.000000E-05   5.000000E-05   5.000000E-05   5.000000E-05   5.000000E-05   5.000000E-05   5.000000E-05   5.000000E-05   5.000000E-05   5.000000E-05   5.000000E-05   5.000000E-05   5.000000E-05   5.000000E-05   5.000000E-05   5.000000E-05   5.000000E-05   5.000000E-05   5.000000E-05   5.000000E-05   5.000000E-05   5.000000E-05   5.000000E-05   5.000000E-05   5.000000E-05   5.000000E-05   5.000000E-05   5.000000E-05   5.000000E-05   5.000000E-05   5.000000E-05   5.000000E-05   5.000000E-05   5.000000E-05   5.000000E-05   5.000000E-05   5.000000E-05   5.000000E-05   5.000000E-05   5.000000E-05   5.000000E-05
   5.000000E-05   5.000000E-05   5.000000E-05   5.000000E-05   5.000000E-05   5.000000E-05   5.000000E-05   5.000000E-05   5.000000E-05   5.000000E-05   5.000000E-05   5.000000E-05   5.000000E-05   5.000000E-05   5.000000E-05   5.000000E-05   5.000000E-05   5.000000E-05   5.000000E-05   5.000000E-05   5.000000E-05   5.000000E-05   5.000000E-05   5.000000E-05   5.000000E-05   5.000000E-05   5.000000E-05   5.000000E-05   5.000000E-05   5.000000E-05   5.000000E-05   5.000000E-05   5.000000E-05   5.000000E-05   5.000000E-05   5.000000E-05   5.000000E-05   5.000000E-05   5.000000E-05   5.000000E-05   5.000000E-05   5.000000E-05   5.000000E-05   5.000000E-05   5.000000E-05   5.000000E-05   5.000000E-05   5.000000E-05   5.000000E-05   5.000000E-05
   5.000000E-05   5.000000E-05   5.000000E-05   5.000000E-05   5.000000E-05   5.000000E-05   5.000000E-05   5.000000E-05   5.000000E-05   5.000000E-05   5.000000E-05   5.000000E-05   5.000000E-05   5.000000E-05   5.000000E-05   5.000000E-05   5.000000E-05   5.000000E-05   5.000000E-05   5.000000E-05   5.000000E-05   5.000000E-05   5.000000E-05   5.000000E-05   5.000000E-05   5.000000E-05   5.000000E-05   5.000000E-05   5.000000E-05   5.000000E-05   5.000000E-05   5.000000E-05   5.000000E-05   5.000000E-05   5.000000E-05   5.000000E-05   5.000000E-05   5.000000E-05   5.000000E-05   5.000000E-05   5.000000E-05   5.000000E-05   5.000000E-05   5.000000E-05   5.000000E-05   5.000000E-05   5.000000E-05   5.000000E-05   5.000000E-05   5.000000E-05
   5.000000E-05   5.000000E-05   5.000000E-05   5.000000E-05   5.000000E-05   5.000000E-05   5.000000E-05   5.000000E-05   5.000000E-05   5.000000E-05   5.000000E-05   5.000000E-05   5.000000E-05   5.000000E-05   5.000000E-05   5.000000E-05   5.000000E-05   5.000000E-05   5.000000E-05   5.000000E-05   5.000000E-05   5.000000E-05   5.000000E-05   5.000000E-05   5.000000E-05   5.000000E-05   5.000000E-05   5.000000E-05   5.000000E-05   5.000000E-05   5.000000E-05   5.000000E-05   5.000000E-05   5.000000E-05   5.000000E-05   5.000000E-05   5.000000E-05   5.000000E-05   5.000000E-05   5.000000E-05   5.000000E-05   5.000000E-05   5.000000E-05   5.000000E-05   5.000000E-05   5.000000E-05   5.000000E-05   5.000000E-05   5.000000E-05   5.000000E-05
   5.000000E-05   5.000000E-05   5.000000E-05   5.000000E-05   5.000000E-05   5.000000E-05   5.000000E-05   5.000000E-05   5.000000E-05   5.000000E-05   5.000000E-05   5.000000E-05   5.000000E-05   5.000000E-05   5.000000E-05   5.000000E-05   5.000000E-05   5.000000E-05   5.000000E-05   5.000000E-05   5.000000E-05   5.000000E-05   5.000000E-05   5.000000E-05   5.000000E-05   5.000000E-05   5.000000E-05   5.000000E-05   5.000000E-05   5.000000E-05   5.000000E-05   5.000000E-05   5.000000E-05   5.000000E-05   5.000000E-05   5.000000E-05   5.000000E-05   5.000000E-05   5.000000E-05   5.000000E-05   5.000000E-05   5.000000E-05   5.000000E-05   5.000000E-05   5.000000E-05   5.000000E-05   5.000000E-05   5.000000E-05   5.000000E-05   5.000000E-05
   5.000000E-05   5.000000E-05   5.000000E-05   5.000000E-05   5.000000E-05   5.000000E-05   5.000000E-05   5.000000E-05   5.000000E-05   5.000000E-05   5.000000E-05   5.000000E-05   5.000000E-05   5.000000E-05   5.000000E-05   5.000000E-05   5.000000E-05   5.000000E-05   5.000000E-05   5.000000E-05   5.000000E-05   5.000000E-05   5.000000E-05   5.000000E-05   5.000000E-05   5.000000E-05   5.000000E-05   5.000000E-05   5.000000E-05   5.000000E-05   5.000000E-05   5.000000E-05   5.000000E-05   5.000000E-05   5.000000E-05   5.000000E-05   5.000000E-05   5.000000E-05   5.000000E-05   5.000000E-05   5.000000E-05   5.000000E-05   5.000000E-05   5.000000E-05   5.000000E-05   5.000000E-05   5.000000E-05   5.000000E-05   5.000000E-05   5.000000E-05
   5.000000E-05   5.000000E-05   5.000000E-05   5.000000E-05   5.000000E-05   5.000000E-05   5.000000E-05   5.000000E-05   5.000000E-05   5.000000E-05   5.000000E-05   5.000000E-05   5.000000E-05   5.000000E-05   5.000000E-05   5.000000E-05   5.000000E-05   5.000000E-05   5.000000E-05   5.000000E-05   5.000000E-05   5.000000E-05   5.000000E-05   5.000000E-05   5.000000E-05   5.000000E-05   5.000000E-05   5.000000E-05   5.000000E-05   5.000000E-05   5.000000E-05   5.000000E-05   5.000000E-05   5.000000E-05   5.000000E-05   5.000000E-05   5.000000E-05   5.000000E-05   5.000000E-05   5.000000E-05   5.000000E-05   5.000000E-05   5.000000E-05   5.000000E-05   5.000000E-05   5.000000E-05   5.000000E-05   5.000000E-05   5.000000E-05   5.000000E-05
   5.000000E-05   5.000000E-05   5.000000E-05   5.000000E-05   5.000000E-05   5.000000E-05   5.000000E-05   5.000000E-05   5.000000E-05   5.000000E-05   5.000000E-05   5.000000E-05   5.000000E-05   5.000000E-05   5.000000E-05   5.000000E-05   5.000000E-05   5.000000E-05   5.000000E-05   5.000000E-05   5.000000E-05   5.000000E-05   5.000000E-05   5.000000E-05   5.000000E-05   5.000000E-05   5.000000E-05   5.000000E-05   5.000000E-05   5.000000E-05   5.000000E-05   5.000000E-05   5.000000E-05   5.000000E-05   5.000000E-05   5.000000E-05   5.000000E-05   5.000000E-05   5.000000E-05   5.000000E-05   5.000000E-05   5.000000E-05   5.000000E-05   5.000000E-05   5.000000E-05   5.000000E-05   5.000000E-05   5.000000E-05   5.000000E-05   5.000000E-05
   5.000000E-05   5.000000E-05   5.000000E-05   5.000000E-05   5.000000E-05   5.000000E-05   5.000000E-05   5.000000E-05   5.000000E-05   5.000000E-05   5.000000E-05   5.000000E-05   5.000000E-05   5.000000E-05   5.000000E-05   5.000000E-05   5.000000E-05   5.000000E-05   5.000000E-05   5.000000E-05   5.000000E-05   5.000000E-05   5.000000E-05   5.000000E-05   5.000000E-05   5.000000E-05   5.000000E-05   5.000000E-05   5.000000E-05   5.000000E-05   5.000000E-05   5.000000E-05   5.000000E-05   5.000000E-05   5.000000E-05   5.000000E-05   5.000000E-05   5.000000E-05   5.000000E-05   5.000000E-05   5.000000E-05   5.000000E-05   5.000000E-05   5.000000E-05   5.000000E-05   5.000000E-05   5.000000E-05   5.000000E-05   5.000000E-05   5.000000E-05
   5.000000E-05   5.000000E-05   5.000000E-05   5.000000E-05   5.000000E-05   5.000000E-05   5.000000E-05   5.000000E-05   5.000000E-05   5.000000E-05   5.000000E-05   5.000000E-05   5.000000E-05   5.000000E-05   5.000000E-05   5.000000E-05   5.000000E-05   5.000000E-05   5.000000E-05   5.000000E-05   5.000000E-05   5.000000E-05   5.000000E-05   5.000000E-05   5.000000E-05   5.000000E-05   5.000000E-05   5.000000E-05   5.000000E-05   5.000000E-05   5.000000E-05   5.000000E-05   5.000000E-05   5.000000E-05   5.000000E-05   5.000000E-05   5.000000E-05   5.000000E-05   5.000000E-05   5.000000E-05   5.000000E-05   5.000000E-05   5.000000E-05   5.000000E-05   5.000000E-05   5.000000E-05   5.000000E-05   5.000000E-05   5.000000E-05   5.000000E-05
   5.000000E-05   5.000000E-05   5.000000E-05   5.000000E-05   5.000000E-05   5.000000E-05   5.000000E-05   5.000000E-05   5.000000E-05   5.000000E-05   5.000000E-05   5.000000E-05   5.000000E-05   5.000000E-05   5.000000E-05   5.000000E-05   5.000000E-05   5.000000E-05   5.000000E-05   5.000000E-05   5.000000E-05   5.000000E-05   5.000000E-05   5.000000E-05   5.000000E-05   5.000000E-05   5.000000E-05   5.000000E-05   5.000000E-05   5.000000E-05   5.000000E-05   5.000000E-05   5.000000E-05   5.000000E-05   5.000000E-05   5.000000E-05   5.000000E-05   5.000000E-05   5.000000E-05   5.000000E-05   5.000000E-05   5.000000E-05   5.000000E-05   5.000000E-05   5.000000E-05   5.000000E-05   5.000000E-05   5.000000E-05   5.000000E-05   5.000000E-05
   5.000000E-05   5.000000E-05   5.000000E-05   5.000000E-05   5.000000E-05   5.000000E-05   5.000000E-05   5.000000E-05   5.000000E-05   5.000000E-05   5.000000E-05   5.000000E-05   5.000000E-05   5.000000E-05   5.000000E-05   5.000000E-05   5.000000E-05   5.000000E-05   5.000000E-05   5.000000E-05   5.000000E-05   5.000000E-05   5.000000E-05   5.000000E-05   5.000000E-05   5.000000E-05   5.000000E-05   5.000000E-05   5.000000E-05   5.000000E-05   5.000000E-05   5.000000E-05   5.000000E-05   5.000000E-05   5.000000E-05   5.000000E-05   5.000000E-05   5.000000E-05   5.000000E-05   5.000000E-05   5.000000E-05   5.000000E-05   5.000000E-05   5.000000E-05   5.000000E-05   5.000000E-05   5.000000E-05   5.000000E-05   5.000000E-05   5.000000E-05
   5.000000E-05   5.000000E-05   5.000000E-05   5.000000E-05   5.000000E-05   5.000000E-05   5.000000E-05   5.000000E-05   5.000000E-05   5.000000E-05   5.000000E-05   5.000000E-05   5.000000E-05   5.000000E-05   5.000000E-05   5.000000E-05   5.000000E-05   5.000000E-05   5.000000E-05   5.000000E-05   5.000000E-05   5.000000E-05   5.000000E-05   5.000000E-05   5.000000E-05   5.000000E-05   5.000000E-05   5.000000E-05   5.000000E-05   5.000000E-05   5.000000E-05   5.000000E-05   5.000000E-05   5.000000E-05   5.000000E-05   5.000000E-05   5.000000E-05   5.000000E-05   5.000000E-05   5.000000E-05   5.000000E-05   5.000000E-05   5.000000E-05   5.000000E-05   5.000000E-05   5.000000E-05   5.000000E-05   5.000000E-05   5.000000E-05   5.000000E-05
   5.000000E-05   5.000000E-05   5.000000E-05   5.000000E-05   5.000000E-05   5.000000E-05   5.000000E-05   5.000000E-05   5.000000E-05   5.000000E-05   5.000000E-05   5.000000E-05   5.000000E-05   5.000000E-05   5.000000E-05   5.000000E-05   5.000000E-05   5.000000E-05   5.000000E-05   5.000000E-05   5.000000E-05   5.000000E-05   5.000000E-05   5.000000E-05   5.000000E-05   5.000000E-05   5.000000E-05   5.000000E-05   5.000000E-05   5.000000E-05   5.000000E-05   5.000000E-05   5.000000E-05   5.000000E-05   5.000000E-05   5.000000E-05   5.000000E-05   5.000000E-05   5.000000E-05   5.000000E-05   5.000000E-05   5.000000E-05   5.000000E-05   5.000000E-05   5.000000E-05   5.000000E-05   5.000000E-05   5.000000E-05   5.000000E-05   5.000000E-05