# Name file for MODFLOW-2005, generated by Flopy version 3.9.5.
#xll:0.0; yll:0.0; rotation:0.0; units:meters; lenuni:2; start_datetime:1-1-1970
LIST               2  static_ensemble_1111311.list
DIS               11  static_ensemble_1111311.dis
BAS6              13  static_ensemble_1111311.bas
LPF               15  static_ensemble_1111311.lpf
EVT               22  static_ensemble_1111311.evt
RCH               19  static_ensemble_1111311.rch
RIV               18  static_ensemble_1111311.riv
WEL               20  static_ensemble_1111311.wel
OC                14  static_ensemble_1111311.oc
PCG               27  static_ensemble_1111311.pcg
DATA(BINARY)      53  static_ensemble_1111311.cbc REPLACE
DATA(BINARY)      51  static_ensemble_1111311.hds REPLACE
DATA(BINARY)      52  static_ensemble_1111311.ddn REPLACE
