# Name file for MODFLOW-2005, generated by Flopy version 3.9.5.
#xll:0.0; yll:0.0; rotation:0.0; units:meters; lenuni:2; start_datetime:1-1-1970
LIST               2  static_ensemble_1133113.list
DIS               11  static_ensemble_1133113.dis
BAS6              13  static_ensemble_1133113.bas
LPF               15  static_ensemble_1133113.lpf
EVT               22  static_ensemble_1133113.evt
RCH               19  static_ensemble_1133113.rch
RIV               18  static_ensemble_1133113.riv
WEL               20  static_ensemble_1133113.wel
OC                14  static_ensemble_1133113.oc
PCG               27  static_ensemble_1133113.pcg
DATA(BINARY)      53  static_ensemble_1133113.cbc REPLACE
DATA(BINARY)      51  static_ensemble_1133113.hds REPLACE
DATA(BINARY)      52  static_ensemble_1133113.ddn REPLACE
