# PCG package for MODFLOW-2005 generated by Flopy 3.9.5
5000 500 1 0
1e-05 1e-05 0.97 0 0 3 0.01 
