# WEL package for MODFLOW-2005 generated by Flopy 3.9.5
         3         0 
         3         0 # stress period 1
         3        22        39         -1500.0
         1        13        15             0.0
         1        25        26           375.0
